Good bye!!!
Some new line.
New line.
Another new line.
Line from user22.